#omnetpp.ini
[General]
network = world
snapshot-file = snapShot.sna
sim-time-limit = 10000s
total-stack = 32768KiB
num-rngs = 5

**.mobileHost[*].mac.rng-0 = 4
cmdenv-express-mode = true
#cmdenv-module-messages = false
cmdenv-event-banners = false
record-eventlog=false
#cmdenv-status-frequency = 10000
#cmdenv-runs-to-execute =1-50, 301-400, 651-750, 1001-1100, 1351-1450, 1701-2100 
# cmdenv-runs-to-execute =1-15
# tkenv-default-run= 1
#slavelog = true
#slavelog-file = slave.log
#modmsgs-to-console = true


#world module

#world.height = 50
#world.width = 50

world.height =${physHeight=50}
world.width = ${physWidth=50}
world.numXcells=50
world.numYcells=50
world.cumulativeSpatialDistribution=true
world.spatialDistAreaWidth=${physWidth}
world.spatialDistAreaHeight=${physHeight}
world.spatialDistAreaXOffset=0
world.spatialDistAreaYOffset=0

world.displayScaleFactor = 5
world.mobileHost[*].physic.PacketRate = 1000000
world.mobileHost[*].physic.NoiseFactor = 1.5# Linear value (NOT dB!)
world.mobileHost[*].physic.NoiseDensity = 4E-21
world.mobileHost[*].physic.targetSNR = 316.22# Linear value (NOT dB!)
world.realChannel = true
world.IEEE802_15_4a = true
world.multiPath = false
world.mobilityPatternStore = true
world.numGroups = 15
world.radioRangeMobility = 30
#world.mobileHost[*].routeAlgorithm = "LAR"
world.mobileHost[*].clusteringAlgorithm = "TMClustering"
world.mobileHost[*].positioningAlgorithm = "idealPositioning"
#world.positioning = false
#world.mobility = true
world.clustering = false
world.printConnectionsToFile = true
world.extInterferencePLExp=4

	#inspector module
world.inspector.fileName = "matrix.txt"
world.inspector.snapshotInterval = 100
world.inspector.statInterval = 1
world.inspector.active = false
world.inspector.energyConsumptionMonitoring = false
world.inspector.scenario = 1
world.inspector.NLOSProbability = 0
world.inspector.connectivityPacketSize=256
#world.inspector.NLOSProbability = 0
#world.inspector.connectivityPacketSize=1024
#world.inspector.scenario = 1 #1: Outdoor - 2: Indoor used for 802.15.4a channel

	#mobile host module
#world.mobileHost[*].x = intuniform(0,world.width)
#world.mobileHost[*].y = intuniform(0,world.height) 

	#primary transmitters modules
world.primaryModel="NarrowBand"
world.primaryTopologyChoice=4
world.primaryTransmitters[*].activityFactor = 0.01
world.primaryTransmitters[*].active = true
world.primaryTransmitters[*].txPower = 10
world.primaryTransmitters[*].carrierFrequency = 3.1e9
world.primaryTransmitters[*].bandwidth = 4e7
world.primaryTransmitters[*].packetSize = 512 #bits
world.primaryTransmitters[*].datarate = 2e7
world.primaryTransmitters[*].transmitPeriod = 10 #seconds
world.primaryTransmitters[*].silencePeriod = 1
world.packetLevelPrimaryImpactOnPhy=false
world.numPrimary=0


	#physic module

world.mobileHost[*].physic.txPower = uniform(20000,20000)
world.mobileHost[*].physic.rxThreshold = 1
world.mobileHost[*].physic.Ts = 6.41e-8
world.mobileHost[*].physic.Ns = 16
world.mobileHost[*].physic.Tm = 2e-9
world.mobileHost[*].physic.Ptx = 3.66e-05
world.mobileHost[*].physic.energy = 500
world.mobileHost[*].physic.range = 30
world.mobileHost[*].physic.beamforming=false
world.mobileHost[*].physic.extInterferenceAtPhyOn = true
world.mobileHost[*].physic.phyConnectivityOn=false

	#mac module
world.mobileHost[*].mac.promisqueMode = true
world.mobileHost[*].mac.inBufferSize = 8388640 


	#positioning module


world.mobileHost[*].positioning.neighDetectPeriod = 10
world.mobileHost[*].positioning.distanceUpdatePeriod = 10
world.mobileHost[*].positioning.referenceSystemBuildPeriod=5
world.mobileHost[*].positioning.referenceSystemTransmitPeriod=10
world.mobileHost[*].positioning.enhancedProtocol = true
#world.mobileHost[*].positioning.uniformRangingErrorMax = 0
#world.mobileHost[*].positioning.rangingError= true
#world.mobileHost[*].positioning.rangingErrorDenis=false
#world.mobileHost[*].positioning.fullInformationAvailable = true
#world.mobileHost[*].positioning.uniformPositioningErrorMax = 0
world.mobileHost[*].positioning.statInterval = 1
world.mobileHost[*].positioning.infoRenewInterval = 1
#world.mobileHost[*].positioning.dumpEnabled = false
#world.mobileHost[*].positioningAlgorithm = "SPA"
world.positioning = false
world.mobileHost[*].positioning.rangingError= true
world.mobileHost[*].positioning.uniformRangingErrorMax = 0
world.mobileHost[*].positioning.rangingErrorDenis=false
world.mobileHost[*].positioning.dumpEnabled = false
world.mobileHost[*].positioning.fullInformationAvailable = true
world.mobileHost[*].positioning.uniformPositioningErrorMax = 0


	
	# routing module
world.mobileHost[*].routeAlgorithm = "GPSR"
world.mobileHost[*].route.ackSystemOn=false
world.mobileHost[*].route.gossipingProbability= 1

world.mobileHost[*].route.maximumBandwidthPerNode=100
world.mobileHost[*].route.optimalPathDefinitionTimeOut=1
world.mobileHost[*].route.erasureTimeOut=1
world.mobileHost[*].route.adaptiveLAR=false
world.mobileHost[*].route.LAR=true
world.mobileHost[*].route.msgForwardingTimeOut=0.001
world.mobileHost[*].route.routingFailureTimeOut=5
world.mobileHost[*].route.reliablePathTimeInterval=1
world.mobileHost[*].route.numMaxAttempts=1
world.mobileHost[*].route.routingBufferSize=100
world.mobileHost[*].route.costFunctionOn=false


#world.mobileHost[*].route.gossipingProbability= 0.5

	#application module

world.mobileHost[*].app.rate = 0.05 #packets per second
world.mobileHost[*].app.pktSize = 1024
world.mobileHost[*].app.packetsPerBurst = 3
world.mobileHost[*].app.numberOfSinks = 15
world.mobileHost[*].app.burstInterval = truncnormal(2,1.0) #time elapsed  between two data bursts
world.mobileHost[*].app.orientedTrafficProbability = 0.1
world.mobileHost[*].app.connectionGenerationTimeLimit = 100000 #no more connection requests after this time
world.mobileHost[*].app.connectionsFromFile = false
world.mobileHost[*].app.saveConnsToFile =false

#world.mobileHost[*].app.connectionGenerationInterval = 300
#world.mobileHost[*].app.voiceProb = 1
#world.mobileHost[*].app.videoProb = 0
#world.mobileHost[*].app.dataProb = 0
#world.mobileHost[*].app.alarmProb = 0
#indicate the active hosts, they will generate traffic in all the 
#simulator run. Due to the different random positioning of each node
#fixing the host name that will work does not bring any problem
world.mobileHost[*].app.active = false
world.mobileHost[*].app.connectionGenerationInterval = 800
world.mobileHost[*].app.voiceProb = 0.7
world.mobileHost[*].app.videoProb = 0.1
world.mobileHost[*].app.dataProb = 0.1
world.mobileHost[*].app.alarmProb = 0.1
world.mobileHost[*].app.orientedTraffic = true

#world.mobileHost[1].app.active = true
#world.mobileHost[*].app.active = true
#world.mobileHost[*].app.orientedTraffic = false # overrides the active parameter for sink nodes, that will not generate traffic

#clustering module

world.mobileHost[*].clustering.graphicalOutput=true
world.mobileHost[*].clustering.maxNodesInCluster=15
world.mobileHost[*].clustering.clusteringRenewInterval=300

#world.mobileHost[*].mobilityModel = "RandomWalk"
#world.mobileHost[*].mobilityModel = "RestrictedRandWalk"
#world.mobileHost[*].mobilityModel = "RandomWP"
#world.mobileHost[*].mobilityModel = "RandomDirection"
#world.mobileHost[*].mobilityModel = "Pursuit"
#world.mobileHost[*].mobilityModel = "Normal"
#world.mobileHost[*].mobilityModel = "Inertia"
#world.mobileHost[*].mobilityModel = "Boundless"
#world.mobileHost[*].mobilityModel = "Gaussmarkov"
#world.mobileHost[*].mobilityModel = "Kerberos"
world.mobileHost[*].mobilityModel = "MoMo"
#world.mobileHost[*].mobilityModel = "RPGM"
#world.mobileHost[*].mobilityModel = "RVGM"
world.mobility = true


#include pauseTime.ini

#------------------ RANDOM WALK SETTINGS ----------------------

#  0 = toroidal 1 = bouncing
#world.mobileHost[*].mobility.movKind = 1
#world.mobileHost[*].mobility.moveInterval =0.5
#world.mobileHost[*].mobility.maxSpeed = 10
#world.mobileHost[*].mobility.minSpeed = 2
#world.mobileHost[*].mobility.distance = 230

#others
#world.mobileHost[*].mobility.speedVariator =  2
#world.mobileHost[*].mobility.pauseTime = 10s
#world.mobileHost[*].mobility.target = intuniform(1,6)


#----------- RESTRICTED RANDOM WALK SETTINGS ------------------

#  0 = toroidal 1 = bouncing
#world.mobileHost[*].mobility.movKind = 1
#world.mobileHost[*].mobility.moveInterval =0.5
#world.mobileHost[*].mobility.maxSpeed = 6
#world.mobileHost[*].mobility.minSpeed = 3
#world.mobileHost[*].mobility.distance = 230
#world.mobileHost[*].mobility.speedVariator =  2

#others
#world.mobileHost[*].mobility.pauseTime = 10s
#world.mobileHost[*].mobility.target = intuniform(1,6)


#---------------- RANDOM WAYPOINT SETTINGS --------------------

#world.mobileHost[*].mobility.moveInterval =0.3
#world.mobileHost[*].mobility.maxSpeed = 10
#world.mobileHost[*].mobility.minSpeed = 10
#world.mobileHost[*].mobility.pauseTime = 3s
#others
#world.mobileHost[*].mobility.distance = 230
#world.mobileHost[*].mobility.speedVariator =  2
#world.mobileHost[*].mobility.movKind = 2
#world.mobileHost[*].mobility.target = intuniform(1,6)


#---------------- RANDOM DIRECTION SETTINGS -------------------

#  0 = toroidal 1 = bouncing
#world.mobileHost[*].mobility.movKind = 0
#world.mobileHost[*].mobility.moveInterval =0.5
#world.mobileHost[*].mobility.maxSpeed = 50
#world.mobileHost[*].mobility.minSpeed = 50
#world.mobileHost[*].mobility.pauseTime = 3s

#others
#world.mobileHost[*].mobility.distance = 230
#world.mobileHost[*].mobility.speedVariator =  2
#world.mobileHost[*].mobility.target = intuniform(1,6)

#---------------- PURSUIT MODEL SETTINGS -----------------------

#world.mobileHost[*].mobility.moveInterval =0.5
#world.mobileHost[*].mobility.maxSpeed = 5
#world.mobileHost[*].mobility.minSpeed = 2
#world.mobileHost[*].mobility.target = intuniform(1,6)

#others
#world.mobileHost[*].mobility.distance = 230
#world.mobileHost[*].mobility.speedVariator =  2
#world.mobileHost[*].mobility.movKind = 2
#world.mobileHost[*].mobility.pauseTime = 3s


#------------------ NORMAL WALK SETTINGS ----------------------

#world.mobileHost[*].mobility.moveInterval =0.5
#world.mobileHost[*].mobility.maxSpeed = 3
#world.mobileHost[*].mobility.minSpeed = 3
#world.mobileHost[*].mobility.movKind = 0

#others
#world.mobileHost[*].mobility.distance = 230
#world.mobileHost[*].mobility.speedVariator =  2
#world.mobileHost[*].mobility.pauseTime = 3s
#world.mobileHost[*].mobility.target = -1

#--------------------------------------------------------------

#---------------- BOUNDLESS SETTINGS --------------------

#world.mobileHost[*].mobility.moveInterval =0.1
#world.mobileHost[*].mobility.mobilitySelectPeriod =5
#world.mobileHost[*].mobility.maxSpeed = 5
#world.mobileHost[*].mobility.amax = 5
#world.mobileHost[*].mobility.minSpeed = 0.001
#world.mobileHost[*].mobility.gmax = 1.5705
#world.mobileHost[*].mobility.movKind = 1
#others
#world.mobileHost[*].mobility.alpha = 0.5; Not Used
#world.mobileHost[*].mobility.pauseTime = 1s; Not used
#world.mobileHost[*].mobility.distance = 230; Not Used
#world.mobileHost[*].mobility.speedVariator =  2; Not Used
#world.mobileHost[*].mobility.target = -1; Not Used
#world.mobileHost[*].mobility.rho= 0.5; Not Used

#---------------- GAUSS-MARKOV SETTINGS --------------------

#world.mobileHost[*].mobility.moveInterval =0.1
#world.mobileHost[*].mobility.mobilitySelectPeriod =5
#world.mobileHost[*].mobility.maxSpeed = 5
#world.mobileHost[*].mobility.alpha = 0.5
#world.mobileHost[*].mobility.minSpeed = 0.001
#world.mobileHost[*].mobility.movKind = 1
#others
#world.mobileHost[*].mobility.pauseTime = 3s ; Not Used
#world.mobileHost[*].mobility.amax = 5 ; Not Used
#world.mobileHost[*].mobility.gmax = 1.5705 ; Not Used
#world.mobileHost[*].mobility.distance = 230 ; Not Used 
#world.mobileHost[*].mobility.speedVariator =  2 ; Not Used
#world.mobileHost[*].mobility.pauseTime = 3s ; Not Used
#world.mobileHost[*].mobility.target = -1 ; Not Used
#world.mobileHost[*].mobility.rho= 0 ; Not Used
#world.mobileHost[*].mobility.proximityBound= 5; Not Used

#---------------- KERBEROS SETTINGS --------------------
#world.mobileHost[*].mobility.moveInterval =0.5 #Passed in runsettings_Kerberos.ini
#world.mobileHost[*].mobility.mobilitySelectPeriod = 5
#world.mobileHost[*].mobility.maxSpeed = 2
#world.mobileHost[*].mobility.alpha = 0.75
#world.mobileHost[*].mobility.amax = 5
#world.mobileHost[*].mobility.gmax = 1.5705
#world.mobileHost[*].mobility.movKind = 1
#world.mobileHost[*].mobility.rho = 1 #Passed in runsettings_Kerberos.ini if multiple values need to be considered
#world.mobileHost[*].mobility.groupBoundUpdatePeriod = 0.1# it MUST be always not lower than moveInterval...
#world.mobileHost[*].mobility.checkCollisionDistance = 20
#world.mobileHost[*].mobility.proximityBound= 5 #Passed in runsettings_Kerberos.ini
#world.inspector.mobilityBehaviorSwitch = false
#world.inspector.mobilityBehaviorSwitchPeriod = 400
#world.mobileHost[*].mobility.graphicalOutput = true 
#others

#world.mobileHost[*].mobility.speedStd=0 # Not Used
#world.mobileHost[*].mobility.speedMean=0 # Not Used
#world.mobileHost[*].mobility.dirMean=3.1415
#world.mobileHost[*].mobility.dirStd=3.1415
#world.mobileHost[*].mobility.minSpeed = 10 #Not Used
#world.mobileHost[*].mobility.distance = 230  #Not Used
#world.mobileHost[*].mobility.speedVariator = 2  #Not Used
#world.mobileHost[*].mobility.pauseTime = 1  #Not Used
#world.mobileHost[*].mobility.target = -1  #Not Used
#world.mobileHost[*].mobility.directionBound = 0.26# in rad <-> +/-7.5 degrees
#world.mobileHost[*].mobility.speedBound = 1# in m/s
#world.RPGMmobilityApproachTOMACS=1 #Only used by RPGM when the TOMACS flag is 1

#---------------- RPGM SETTINGS --------------------

#world.mobileHost[*].mobility.graphicalOutput = false 
#world.mobileHost[*].mobility.moveInterval =0.1; Passed in runsettings_RPGM.ini
#world.mobileHost[*].mobility.mobilitySelectPeriod =0.5
#world.mobileHost[*].mobility.maxSpeed = 5
#world.mobileHost[*].mobility.minSpeed = 0.001
#world.mobileHost[*].mobility.pauseTime = 1
#world.mobileHost[*].mobility.proximityBound= 5; Passed in runsettings_RPGM.ini
#world.mobileHost[*].mobility.movKind = 1
#world.inspector.mobilityBehaviorSwitch = false
#world.inspector.mobilityBehaviorSwitchPeriod = 400
#world.mobileHost[*].mobility.moveInterval = 0.25
#world.mobileHost[*].mobility.proximityBound = 15
#others
#world.mobileHost[*].mobility.groupBoundUpdatePeriod = 0.1 #Not Used
#world.mobileHost[*].mobility.alpha = 0.75  #Not Used
#world.mobileHost[*].mobility.amax = 5 #Not Used
#world.mobileHost[*].mobility.gmax = 1.5705 #Not Used
#world.mobileHost[*].mobility.distance = 230 #Not Used
#world.mobileHost[*].mobility.speedVariator =  2 #Not Used
#world.mobileHost[*].mobility.target = -1 #Not Used
#world.mobileHost[*].mobility.rho= 0.7 #Not Used
#world.mobileHost[*].mobility.directionBound = 0.26# in rad <-> +/-7.5 degrees
#world.mobileHost[*].mobility.speedBound = 1# in m/s

#---------------- RVGM SETTINGS --------------------

#world.mobileHost[*].mobility.graphicalOutput = true 
#world.mobileHost[*].mobility.mobilitySelectPeriod = 5
#world.mobileHost[*].mobility.maxSpeed = 5
#world.mobileHost[*].mobility.minSpeed = 0.001
#world.mobileHost[*].mobility.movKind = 1
#world.mobileHost[*].mobility.speedBound = 1# in m/s
#world.mobileHost[*].mobility.directionBound = 0.26# in rad <-> +/-7.5 degrees
#world.mobileHost[*].mobility.groupBoundUpdatePeriod = 0.1# it MUST be always not lower than moveInterval...
#others
#world.mobileHost[*].mobility.pauseTime = 3# Not Used
#world.mobileHost[*].mobility.proximityBound = 5# Not Used
#world.mobileHost[*].mobility.alpha = 0.75  #Not Used
#world.mobileHost[*].mobility.amax = 5 #Not Used
#world.mobileHost[*].mobility.gmax = 1.5705 #Not Used
#world.mobileHost[*].mobility.distance = 230 #Not Used
#world.mobileHost[*].mobility.speedVariator = 2 #Not Used
#world.mobileHost[*].mobility.target = -1 #Not Used
#world.mobileHost[*].mobility.rho = 0.7 #Not Used

include runsettings_MoMo.ini

#[Config mobility_Study_Kerberos]
#
#world.inspector.experimentName="${experiment}"
#world.mobileHost[*].positioningAlgorithm = "SPA"
#world.positioning = false
#world.mobileHost[*].positioning.rangingError= true
#world.mobileHost[*].positioning.uniformRangingErrorMax = 0
#world.mobileHost[*].positioning.rangingErrorDenis=false
#world.mobileHost[*].positioning.dumpEnabled = false
#world.mobileHost[*].positioning.fullInformationAvailable = true
#world.mobileHost[*].positioning.uniformPositioningErrorMax = 0
#world.inspector.run = ${runnumber}
#result-dir=mobility_Study_Kerberos
#repeat=1
#world.mobileHost[*].routeAlgorithm = "GPSR"
#world.mobileHost[*].route.ackSystemOn=false
#world.mobileHost[*].route.gossipingProbability= 1
#world.dim = 105
#world.inspector.scenario = ${1,2}
#world.inspector.NLOSProbability = ${0..1 step 0.5}
#world.inspector.connectivityPacketSize=${256,1024}
#world.height = ${n=100..1000 step 100}
#world.width = ${m=100..1000 step 100}
#constraint = $m==$n
#world.mobility = true
##world.mobileHost[*].mobility.maxSpeed = 5
#world.mobileHost[*].app.active = false
#world.mobileHost[*].app.connectionGenerationInterval = 800
#world.mobileHost[*].app.voiceProb = 0.7
#world.mobileHost[*].app.videoProb = 0.1
#world.mobileHost[*].app.dataProb = 0.1
#world.mobileHost[*].app.alarmProb = 0.1
#world.mobileHost[*].app.orientedTraffic = true
#
#[Config positioning_SPA_Still_Nodes_Uniform_Error_Low_Error]
#
#world.inspector.experimentName="${experiment}"
#world.mobileHost[*].positioningAlgorithm = "SPA"
#world.positioning = true
#world.mobileHost[*].positioning.uniformRangingErrorMax = ${0.1..0.5 step 0.2}
#world.mobileHost[*].positioning.rangingError= true
#world.mobileHost[*].positioning.rangingErrorDenis=false
#world.mobileHost[*].positioning.fullInformationAvailable = false
#world.mobileHost[*].positioning.uniformPositioningErrorMax = 0
#world.mobileHost[*].positioning.dumpEnabled = true
#world.mobileHost[*].routeAlgorithm = "GPSR"
#world.mobileHost[*].route.ackSystemOn=false
#world.inspector.run = ${runnumber}
#result-dir=positioning_SPA_Still_Nodes_Uniform_Error_Low_Error
#repeat=5
#world.mobileHost[*].route.gossipingProbability= 1
#world.dim = 16
#world.inspector.scenario = 1
#world.inspector.NLOSProbability = ${0, 0.5}
#world.inspector.connectivityPacketSize=256
#world.height = 50
#world.width = 50
##constraint = $m==$n
#world.mobility = false
##world.mobileHost[*].mobility.maxSpeed = 5
#world.mobileHost[*].app.active = false
#world.mobileHost[*].app.connectionGenerationInterval = 800
#world.mobileHost[*].app.voiceProb = 0.7
#world.mobileHost[*].app.videoProb = 0.1
#world.mobileHost[*].app.dataProb = 0.1
#world.mobileHost[*].app.alarmProb = 0.1
#world.mobileHost[*].app.orientedTraffic = true
#
#[Config positioning_SPA_Still_Nodes_Uniform_Error]
#
#world.inspector.experimentName="${experiment}"
#world.mobileHost[*].positioningAlgorithm = "SPA"
#world.positioning = true
#world.mobileHost[*].positioning.uniformRangingErrorMax = ${0..3 step 1}
#world.mobileHost[*].positioning.rangingError= true
#world.mobileHost[*].positioning.rangingErrorDenis=false
#world.mobileHost[*].positioning.dumpEnabled = false
#world.mobileHost[*].positioning.fullInformationAvailable = false
#world.mobileHost[*].positioning.uniformPositioningErrorMax = 0
#world.mobileHost[*].routeAlgorithm = "GPSR"
#world.mobileHost[*].route.ackSystemOn=false
#world.inspector.run = ${runnumber}
#result-dir=positioning_SPA_Still_Nodes_Uniform_Error
#repeat=5
#world.mobileHost[*].route.gossipingProbability= 1
#world.dim = 105
#world.inspector.scenario = 1
#world.inspector.NLOSProbability = ${0, 0.5}
#world.inspector.connectivityPacketSize=256
#world.height = 250
#world.width = 250
##constraint = $m==$n
#world.mobility = false
##world.mobileHost[*].mobility.maxSpeed = 5
#world.mobileHost[*].app.active = false
#world.mobileHost[*].app.connectionGenerationInterval = 800
#world.mobileHost[*].app.voiceProb = 0.7
#world.mobileHost[*].app.videoProb = 0.1
#world.mobileHost[*].app.dataProb = 0.1
#world.mobileHost[*].app.alarmProb = 0.1
#world.mobileHost[*].app.orientedTraffic = true
#
#[Config positioning_SPA_Still_Nodes_Denis_Error]
#
#world.inspector.experimentName="${experiment}"
#world.mobileHost[*].positioningAlgorithm = "SPA"
#world.positioning = true
#world.mobileHost[*].positioning.uniformRangingErrorMax = 0
#world.mobileHost[*].positioning.rangingError= true
#world.mobileHost[*].positioning.rangingErrorDenis=true
#world.mobileHost[*].positioning.dumpEnabled = false
#world.mobileHost[*].positioning.fullInformationAvailable = false
#world.mobileHost[*].positioning.uniformPositioningErrorMax = 0
#world.mobileHost[*].routeAlgorithm = "GPSR"
#world.mobileHost[*].route.ackSystemOn=false
#world.inspector.run = ${runnumber}
#result-dir=positioning_SPA_Still_Nodes_Denis_Error
#repeat=5
#world.mobileHost[*].route.gossipingProbability= 1
#world.dim = 105
#world.inspector.scenario = 1
#world.inspector.NLOSProbability = ${0,0.5}
#world.inspector.connectivityPacketSize=256
#world.height = 250
#world.width = 250
##constraint = $m==$n
#world.mobility = false
##world.mobileHost[*].mobility.maxSpeed = 5
#world.mobileHost[*].app.active = false
#world.mobileHost[*].app.connectionGenerationInterval = 800
#world.mobileHost[*].app.voiceProb = 0.7
#world.mobileHost[*].app.videoProb = 0.1
#world.mobileHost[*].app.dataProb = 0.1
#world.mobileHost[*].app.alarmProb = 0.1
#world.mobileHost[*].app.orientedTraffic = true
#
#[Config positioning_SPA_Kerberos_Denis_Error]
#
#world.inspector.experimentName="${experiment}"
#world.mobileHost[*].positioningAlgorithm = "SPA"
#world.positioning = true
#world.mobileHost[*].positioning.uniformRangingErrorMax = 0
#world.mobileHost[*].positioning.rangingError= true
#world.mobileHost[*].positioning.rangingErrorDenis=true
#world.mobileHost[*].positioning.dumpEnabled = false
#world.mobileHost[*].positioning.fullInformationAvailable = false
#world.mobileHost[*].positioning.uniformPositioningErrorMax = 0
#world.mobileHost[*].routeAlgorithm = "GPSR"
#world.mobileHost[*].route.ackSystemOn=false
#world.inspector.run = ${runnumber}
#result-dir=positioning_SPA_Kerberos_Denis_Error
#repeat=5
#world.mobileHost[*].route.gossipingProbability= 1
#world.dim = 105
#world.inspector.scenario = 1
#world.inspector.NLOSProbability = ${0,0.5}
#world.inspector.connectivityPacketSize=256
#world.height = 250
#world.width = 250
##constraint = $m==$n
#world.mobility = true
#world.mobileHost[*].mobility.maxSpeed = ${1..5 step 2}
#world.mobileHost[*].app.active = false
#world.mobileHost[*].app.connectionGenerationInterval = 800
#world.mobileHost[*].app.voiceProb = 0.7
#world.mobileHost[*].app.videoProb = 0.1
#world.mobileHost[*].app.dataProb = 0.1
#world.mobileHost[*].app.alarmProb = 0.1
#world.mobileHost[*].app.orientedTraffic = true
#
#[Config positioning_SPA_Kerberos_Uniform_Error]
#
#world.inspector.experimentName="${experiment}"
#world.mobileHost[*].positioningAlgorithm = "SPA"
#world.positioning = true
#world.mobileHost[*].positioning.uniformRangingErrorMax = ${0..3 step 1}
#world.mobileHost[*].positioning.rangingError= true
#world.mobileHost[*].positioning.rangingErrorDenis=false
#world.mobileHost[*].positioning.dumpEnabled = false
#world.mobileHost[*].positioning.fullInformationAvailable = false
#world.mobileHost[*].positioning.uniformPositioningErrorMax = 0
#world.mobileHost[*].routeAlgorithm = "GPSR"
#world.mobileHost[*].route.ackSystemOn=false
#world.inspector.run = ${runnumber}
#result-dir=positioning_SPA_Kerberos_Uniform_Error
#repeat=3
#world.mobileHost[*].route.gossipingProbability= 1
#world.dim = 105
#world.inspector.scenario = 1
#world.inspector.NLOSProbability = ${0,0.5}
#world.inspector.connectivityPacketSize=256
#world.height = 250
#world.width = 250
##constraint = $m==$n
#world.mobility = true
#world.mobileHost[*].mobility.maxSpeed = ${1..5 step 2}
#world.mobileHost[*].app.active = false
#world.mobileHost[*].app.connectionGenerationInterval = 800
#world.mobileHost[*].app.voiceProb = 0.7
#world.mobileHost[*].app.videoProb = 0.1
#world.mobileHost[*].app.dataProb = 0.1
#world.mobileHost[*].app.alarmProb = 0.1
#world.mobileHost[*].app.orientedTraffic = true
#
#[Config connectivityStudyKerberos]
#
#world.inspector.experimentName="${experiment}"
#world.mobileHost[*].positioningAlgorithm = "SPA"
#world.positioning = false
#world.mobileHost[*].positioning.rangingError= true
#world.mobileHost[*].positioning.uniformRangingErrorMax = 0
#world.mobileHost[*].positioning.rangingErrorDenis=false
#world.mobileHost[*].positioning.dumpEnabled = false
#world.mobileHost[*].positioning.fullInformationAvailable = true
#world.mobileHost[*].positioning.uniformPositioningErrorMax = 0
#world.inspector.run = ${runnumber}
#result-dir=connectivityResultsKerberos
#repeat=10
#world.mobileHost[*].routeAlgorithm = "GPSR"
#world.mobileHost[*].route.ackSystemOn=false
#world.mobileHost[*].route.gossipingProbability= 1
#world.dim = 105
#world.inspector.scenario = ${1,2}
#world.inspector.NLOSProbability = ${0..1 step 0.5}
#world.inspector.connectivityPacketSize=${256,1024}
#world.height = ${n=100..1000 step 100}
#world.width = ${m=100..1000 step 100}
#constraint = $m==$n
#world.mobility = true
##world.mobileHost[*].mobility.maxSpeed = 5
#world.mobileHost[*].app.active = false
#world.mobileHost[*].app.connectionGenerationInterval = 800
#world.mobileHost[*].app.voiceProb = 0.7
#world.mobileHost[*].app.videoProb = 0.1
#world.mobileHost[*].app.dataProb = 0.1
#world.mobileHost[*].app.alarmProb = 0.1
#world.mobileHost[*].app.orientedTraffic = true
#
#[Config routingStudyAODV_LowTraffic_Oriented_Connectivity_Variation_StillNodes]
#
#world.inspector.experimentName="${experiment}"
#world.mobileHost[*].positioningAlgorithm = "idealPositioning"
#world.positioning = false
#world.mobileHost[*].positioning.fullInformationAvailable = true
#world.mobileHost[*].positioning.uniformPositioningErrorMax = 0
#world.inspector.run = ${runnumber}
#world.mobileHost[*].routeAlgorithm = "AODV"
#result-dir=routingStudyAODV_LowTraffic_Oriented_Connectivity_Variation_StillNodes
#repeat=5
#world.mobileHost[*].route.gossipingProbability= ${0.25..1 step 0.25}
#world.dim = 105
#world.inspector.scenario = 1
#world.inspector.NLOSProbability = 0.5
#world.inspector.connectivityPacketSize=256
#world.height = ${n=250,500}
#world.width = ${m=250,500}
#constraint = $m==$n
#world.mobileHost[*].app.connectionGenerationInterval = 1000
#world.mobileHost[*].app.voiceProb = 0.7
#world.mobileHost[*].app.videoProb = 0.1
#world.mobileHost[*].app.dataProb = 0.1
#world.mobileHost[*].app.alarmProb = 0.1
#world.mobileHost[*].app.active = true
#world.mobileHost[*].app.orientedTraffic = true
#world.mobility = false
#
#[Config routingStudyAODV_LowTraffic_NotOriented_StillNodes]
#
#world.inspector.experimentName="${experiment}"
#world.mobileHost[*].positioningAlgorithm = "idealPositioning"
#world.positioning = false
#world.mobileHost[*].positioning.fullInformationAvailable = true
#world.mobileHost[*].positioning.uniformPositioningErrorMax = 0
#world.inspector.run = ${runnumber}
#world.mobileHost[*].routeAlgorithm = "AODV"
#result-dir=routingStudyAODV_LowTraffic_NotOriented
#repeat=5
#world.mobileHost[*].route.gossipingProbability= 0.25
#world.dim = 105
#world.inspector.scenario = 1
#world.inspector.NLOSProbability = 0.5
#world.inspector.connectivityPacketSize=256
#world.height = 250
#world.width = 250
#world.mobileHost[*].app.connectionGenerationInterval = 1000
#world.mobileHost[*].app.voiceProb = 0.7
#world.mobileHost[*].app.videoProb = 0.1
#world.mobileHost[*].app.dataProb = 0.1
#world.mobileHost[*].app.alarmProb = 0.1
#world.mobileHost[*].app.active = true
#world.mobileHost[*].app.orientedTraffic = false
#world.mobility = false
#
#[Config routingStudyAODV_HighTraffic_Oriented_StillNodes]
#
#world.inspector.experimentName="${experiment}"
#world.mobileHost[*].positioningAlgorithm = "idealPositioning"
#world.positioning = false
#world.mobileHost[*].positioning.fullInformationAvailable = true
#world.mobileHost[*].positioning.uniformPositioningErrorMax = 0
#world.inspector.run = ${runnumber}
#world.mobileHost[*].routeAlgorithm = "AODV"
#result-dir=routingStudyAODV_HighTraffic_Oriented
#repeat=5
#world.mobileHost[*].route.gossipingProbability= 0.25
#world.dim = 105
#world.inspector.scenario = 1
#world.inspector.NLOSProbability = 0.5
#world.inspector.connectivityPacketSize=256
#world.height = 250
#world.width = 250
#world.mobileHost[*].app.connectionGenerationInterval = 1000
#world.mobileHost[*].app.voiceProb = 0.1
#world.mobileHost[*].app.videoProb = 0.7
#world.mobileHost[*].app.dataProb = 0.1
#world.mobileHost[*].app.alarmProb = 0.1
#world.mobileHost[*].app.active = true
#world.mobileHost[*].app.orientedTraffic = true
#world.mobility = false
#
#[Config routingStudyAODV_HighTraffic_NotOriented_StillNodes]
#
#world.inspector.experimentName="${experiment}"
#world.mobileHost[*].positioningAlgorithm = "idealPositioning"
#world.positioning = false
#world.mobileHost[*].positioning.fullInformationAvailable = true
#world.mobileHost[*].positioning.uniformPositioningErrorMax = 0
#world.inspector.run = ${runnumber}
#world.mobileHost[*].routeAlgorithm = "AODV"
#result-dir=routingStudyAODV_HighTraffic_NotOriented
#repeat=5
#world.mobileHost[*].route.gossipingProbability= 0.25
#world.dim = 105
#world.inspector.scenario = 1
#world.inspector.NLOSProbability = 0.5
#world.inspector.connectivityPacketSize=256
#world.height = 250
#world.width = 250
#world.mobileHost[*].app.connectionGenerationInterval = 1000
#world.mobileHost[*].app.voiceProb = 0.1
#world.mobileHost[*].app.videoProb = 0.7
#world.mobileHost[*].app.dataProb = 0.1
#world.mobileHost[*].app.alarmProb = 0.1
#world.mobileHost[*].app.active = true
#world.mobileHost[*].app.orientedTraffic = false
#world.mobility = false
#
#[Config routingStudyAODV_LowTraffic_Oriented_Kerberos]
#
#world.inspector.experimentName="${experiment}"
#world.mobileHost[*].positioningAlgorithm = "idealPositioning"